# Well file for MODFLOW, generated by Flopy.
        56         0
         5         0 # stress period 0
         1        51       426   0.0000000E+00
         1       151       426   0.0000000E+00
         1       251       426   0.0000000E+00
         1       351       426   0.0000000E+00
         1       451       426   0.0000000E+00
         5         0 # stress period 1
         1        51       426   0.0000000E+00
         1       151       426   0.0000000E+00
         1       251       426   0.0000000E+00
         1       351       426   0.0000000E+00
         1       451       426   0.0000000E+00
         3         0 # stress period 2
         1        51       426  -2.0000000E+03
         1       251       426  -2.0000000E+03
         1       451       426  -2.0000000E+03
         5         0 # stress period 3
         1        51       426  -1.9000000E+03
         1       151       426  -1.9000000E+03
         1       251       426  -1.9000000E+03
         1       351       426  -1.9000000E+03
         1       451       426  -1.9000000E+03
         5         0 # stress period 4
         1        51       426  -1.6000000E+03
         1       151       426  -1.6000000E+03
         1       251       426  -1.6000000E+03
         1       351       426  -1.6000000E+03
         1       451       426  -1.6000000E+03
         9         0 # stress period 5
         1        51       426  -1.2000000E+03
         1       101       426  -1.2000000E+03
         1       151       426  -1.2000000E+03
         1       201       426  -1.2000000E+03
         1       251       426  -1.2000000E+03
         1       301       426  -1.2000000E+03
         1       351       426  -1.2000000E+03
         1       401       426  -1.2000000E+03
         1       451       426  -1.2000000E+03
        34         0 # stress period 6
         1        51       426  -2.0000000E+02
         1        51       476  -2.0000000E+02
         1        76       426  -2.0000000E+02
         1        76       476  -2.0000000E+02
         1       101       426  -2.0000000E+02
         1       101       476  -2.0000000E+02
         1       126       426  -2.0000000E+02
         1       126       476  -2.0000000E+02
         1       151       426  -2.0000000E+02
         1       151       476  -2.0000000E+02
         1       176       426  -2.0000000E+02
         1       176       476  -2.0000000E+02
         1       201       426  -2.0000000E+02
         1       201       476  -2.0000000E+02
         1       226       426  -2.0000000E+02
         1       226       476  -2.0000000E+02
         1       251       426  -2.0000000E+02
         1       251       476  -2.0000000E+02
         1       276       426  -2.0000000E+02
         1       276       476  -2.0000000E+02
         1       301       426  -2.0000000E+02
         1       301       476  -2.0000000E+02
         1       326       426  -2.0000000E+02
         1       326       476  -2.0000000E+02
         1       351       426  -2.0000000E+02
         1       351       476  -2.0000000E+02
         1       376       426  -2.0000000E+02
         1       376       476  -2.0000000E+02
         1       401       426  -2.0000000E+02
         1       401       476  -2.0000000E+02
         1       426       426  -2.0000000E+02
         1       426       476  -2.0000000E+02
         1       451       426  -2.0000000E+02
         1       451       476  -2.0000000E+02
        51         0 # stress period 7
         1        51       426  -1.0500000E+02
         1        51       451  -1.0500000E+02
         1        51       476  -1.0500000E+02
         1        76       426  -1.0500000E+02
         1        76       451  -1.0500000E+02
         1        76       476  -1.0500000E+02
         1       101       426  -1.0500000E+02
         1       101       451  -1.0500000E+02
         1       101       476  -1.0500000E+02
         1       126       426  -1.0500000E+02
         1       126       451  -1.0500000E+02
         1       126       476  -1.0500000E+02
         1       151       426  -1.0500000E+02
         1       151       451  -1.0500000E+02
         1       151       476  -1.0500000E+02
         1       176       426  -1.0500000E+02
         1       176       451  -1.0500000E+02
         1       176       476  -1.0500000E+02
         1       201       426  -1.0500000E+02
         1       201       451  -1.0500000E+02
         1       201       476  -1.0500000E+02
         1       226       426  -1.0500000E+02
         1       226       451  -1.0500000E+02
         1       226       476  -1.0500000E+02
         1       251       426  -1.0500000E+02
         1       251       451  -1.0500000E+02
         1       251       476  -1.0500000E+02
         1       276       426  -1.0500000E+02
         1       276       451  -1.0500000E+02
         1       276       476  -1.0500000E+02
         1       301       426  -1.0500000E+02
         1       301       451  -1.0500000E+02
         1       301       476  -1.0500000E+02
         1       326       426  -1.0500000E+02
         1       326       451  -1.0500000E+02
         1       326       476  -1.0500000E+02
         1       351       426  -1.0500000E+02
         1       351       451  -1.0500000E+02
         1       351       476  -1.0500000E+02
         1       376       426  -1.0500000E+02
         1       376       451  -1.0500000E+02
         1       376       476  -1.0500000E+02
         1       401       426  -1.0500000E+02
         1       401       451  -1.0500000E+02
         1       401       476  -1.0500000E+02
         1       426       426  -1.0500000E+02
         1       426       451  -1.0500000E+02
         1       426       476  -1.0500000E+02
         1       451       426  -1.0500000E+02
         1       451       451  -1.0500000E+02
         1       451       476  -1.0500000E+02
        51         0 # stress period 8
         1        51       426  -9.0000000E+01
         1        51       451  -9.0000000E+01
         1        51       476  -9.0000000E+01
         1        76       426  -9.0000000E+01
         1        76       451  -9.0000000E+01
         1        76       476  -9.0000000E+01
         1       101       426  -9.0000000E+01
         1       101       451  -9.0000000E+01
         1       101       476  -9.0000000E+01
         1       126       426  -9.0000000E+01
         1       126       451  -9.0000000E+01
         1       126       476  -9.0000000E+01
         1       151       426  -9.0000000E+01
         1       151       451  -9.0000000E+01
         1       151       476  -9.0000000E+01
         1       176       426  -9.0000000E+01
         1       176       451  -9.0000000E+01
         1       176       476  -9.0000000E+01
         1       201       426  -9.0000000E+01
         1       201       451  -9.0000000E+01
         1       201       476  -9.0000000E+01
         1       226       426  -9.0000000E+01
         1       226       451  -9.0000000E+01
         1       226       476  -9.0000000E+01
         1       251       426  -9.0000000E+01
         1       251       451  -9.0000000E+01
         1       251       476  -9.0000000E+01
         1       276       426  -9.0000000E+01
         1       276       451  -9.0000000E+01
         1       276       476  -9.0000000E+01
         1       301       426  -9.0000000E+01
         1       301       451  -9.0000000E+01
         1       301       476  -9.0000000E+01
         1       326       426  -9.0000000E+01
         1       326       451  -9.0000000E+01
         1       326       476  -9.0000000E+01
         1       351       426  -9.0000000E+01
         1       351       451  -9.0000000E+01
         1       351       476  -9.0000000E+01
         1       376       426  -9.0000000E+01
         1       376       451  -9.0000000E+01
         1       376       476  -9.0000000E+01
         1       401       426  -9.0000000E+01
         1       401       451  -9.0000000E+01
         1       401       476  -9.0000000E+01
         1       426       426  -9.0000000E+01
         1       426       451  -9.0000000E+01
         1       426       476  -9.0000000E+01
         1       451       426  -9.0000000E+01
         1       451       451  -9.0000000E+01
         1       451       476  -9.0000000E+01
        56         0 # stress period 9
         1        51       426  -9.0000000E+01
         1        51       451  -9.0000000E+01
         1        51       476  -9.0000000E+01
         1        76       426  -9.0000000E+01
         1        76       451  -9.0000000E+01
         1        76       476  -9.0000000E+01
         1       101       426  -9.0000000E+01
         1       101       451  -9.0000000E+01
         1       101       476  -9.0000000E+01
         1       126       426  -9.0000000E+01
         1       126       451  -9.0000000E+01
         1       126       476  -9.0000000E+01
         1       151       426  -9.0000000E+01
         1       151       451  -9.0000000E+01
         1       151       476  -9.0000000E+01
         1       176       426  -9.0000000E+01
         1       176       451  -9.0000000E+01
         1       176       476  -9.0000000E+01
         1       201       426  -9.0000000E+01
         1       201       451  -9.0000000E+01
         1       201       476  -9.0000000E+01
         1       226       426  -9.0000000E+01
         1       226       451  -9.0000000E+01
         1       226       476  -9.0000000E+01
         1       251       426  -9.0000000E+01
         1       251       451  -9.0000000E+01
         1       251       476  -9.0000000E+01
         1       276       426  -9.0000000E+01
         1       276       451  -9.0000000E+01
         1       276       476  -9.0000000E+01
         1       301       426  -9.0000000E+01
         1       301       451  -9.0000000E+01
         1       301       476  -9.0000000E+01
         1       326       426  -9.0000000E+01
         1       326       451  -9.0000000E+01
         1       326       476  -9.0000000E+01
         1       351       426  -9.0000000E+01
         1       351       451  -9.0000000E+01
         1       351       476  -9.0000000E+01
         1       376       426  -9.0000000E+01
         1       376       451  -9.0000000E+01
         1       376       476  -9.0000000E+01
         1       401       426  -9.0000000E+01
         1       401       451  -9.0000000E+01
         1       401       476  -9.0000000E+01
         1       426       426  -9.0000000E+01
         1       426       451  -9.0000000E+01
         1       426       476  -9.0000000E+01
         1       451       426  -9.0000000E+01
         1       451       451  -9.0000000E+01
         1       451       476  -9.0000000E+01
         1        51       251  -1.2000000E+03
         1       151       251  -1.2000000E+03
         1       251       251  -1.2000000E+03
         1       351       251  -1.2000000E+03
         1       451       251  -1.2000000E+03
