# Discretization file for MODFLOW, generated by Flopy.
         2       100       100        10         4         2
  0  0
CONSTANT    5.000000E+01                           #delr                          
CONSTANT    5.000000E+01                           #delc                          
CONSTANT    8.000000E+01                           #model_top                     
CONSTANT    2.000000E+01                           #botm layer 1                  
CONSTANT    0.000000E+00                           #botm layer 2                  
      1.000000             1  1.000000  SS 
    100.000000            10  1.000000  TR 
    365.000000            10  1.000000  TR 
    365.000000            10  1.000000  TR 
    365.000000            10  1.000000  TR 
    365.000000            10  1.000000  TR 
    365.000000            10  1.000000  TR 
    365.000000            10  1.000000  TR 
    365.000000            10  1.000000  TR 
    365.000000            10  1.000000  TR 
