# Well file for MODFLOW, generated by Flopy.
        56         0
         5         0 # stress period 0
         1        11        86   0.0000000E+00
         1        31        86   0.0000000E+00
         1        51        86   0.0000000E+00
         1        71        86   0.0000000E+00
         1        91        86   0.0000000E+00
         5         0 # stress period 1
         1        11        86   0.0000000E+00
         1        31        86   0.0000000E+00
         1        51        86   0.0000000E+00
         1        71        86   0.0000000E+00
         1        91        86   0.0000000E+00
         3         0 # stress period 2
         1        11        86  -2.0000000E+03
         1        51        86  -2.0000000E+03
         1        91        86  -2.0000000E+03
         5         0 # stress period 3
         1        11        86  -1.9000000E+03
         1        31        86  -1.9000000E+03
         1        51        86  -1.9000000E+03
         1        71        86  -1.9000000E+03
         1        91        86  -1.9000000E+03
         5         0 # stress period 4
         1        11        86  -1.6000000E+03
         1        31        86  -1.6000000E+03
         1        51        86  -1.6000000E+03
         1        71        86  -1.6000000E+03
         1        91        86  -1.6000000E+03
         9         0 # stress period 5
         1        11        86  -1.2000000E+03
         1        21        86  -1.2000000E+03
         1        31        86  -1.2000000E+03
         1        41        86  -1.2000000E+03
         1        51        86  -1.2000000E+03
         1        61        86  -1.2000000E+03
         1        71        86  -1.2000000E+03
         1        81        86  -1.2000000E+03
         1        91        86  -1.2000000E+03
        34         0 # stress period 6
         1        11        86  -2.0000000E+02
         1        11        96  -2.0000000E+02
         1        16        86  -2.0000000E+02
         1        16        96  -2.0000000E+02
         1        21        86  -2.0000000E+02
         1        21        96  -2.0000000E+02
         1        26        86  -2.0000000E+02
         1        26        96  -2.0000000E+02
         1        31        86  -2.0000000E+02
         1        31        96  -2.0000000E+02
         1        36        86  -2.0000000E+02
         1        36        96  -2.0000000E+02
         1        41        86  -2.0000000E+02
         1        41        96  -2.0000000E+02
         1        46        86  -2.0000000E+02
         1        46        96  -2.0000000E+02
         1        51        86  -2.0000000E+02
         1        51        96  -2.0000000E+02
         1        56        86  -2.0000000E+02
         1        56        96  -2.0000000E+02
         1        61        86  -2.0000000E+02
         1        61        96  -2.0000000E+02
         1        66        86  -2.0000000E+02
         1        66        96  -2.0000000E+02
         1        71        86  -2.0000000E+02
         1        71        96  -2.0000000E+02
         1        76        86  -2.0000000E+02
         1        76        96  -2.0000000E+02
         1        81        86  -2.0000000E+02
         1        81        96  -2.0000000E+02
         1        86        86  -2.0000000E+02
         1        86        96  -2.0000000E+02
         1        91        86  -2.0000000E+02
         1        91        96  -2.0000000E+02
        51         0 # stress period 7
         1        11        86  -1.0500000E+02
         1        11        91  -1.0500000E+02
         1        11        96  -1.0500000E+02
         1        16        86  -1.0500000E+02
         1        16        91  -1.0500000E+02
         1        16        96  -1.0500000E+02
         1        21        86  -1.0500000E+02
         1        21        91  -1.0500000E+02
         1        21        96  -1.0500000E+02
         1        26        86  -1.0500000E+02
         1        26        91  -1.0500000E+02
         1        26        96  -1.0500000E+02
         1        31        86  -1.0500000E+02
         1        31        91  -1.0500000E+02
         1        31        96  -1.0500000E+02
         1        36        86  -1.0500000E+02
         1        36        91  -1.0500000E+02
         1        36        96  -1.0500000E+02
         1        41        86  -1.0500000E+02
         1        41        91  -1.0500000E+02
         1        41        96  -1.0500000E+02
         1        46        86  -1.0500000E+02
         1        46        91  -1.0500000E+02
         1        46        96  -1.0500000E+02
         1        51        86  -1.0500000E+02
         1        51        91  -1.0500000E+02
         1        51        96  -1.0500000E+02
         1        56        86  -1.0500000E+02
         1        56        91  -1.0500000E+02
         1        56        96  -1.0500000E+02
         1        61        86  -1.0500000E+02
         1        61        91  -1.0500000E+02
         1        61        96  -1.0500000E+02
         1        66        86  -1.0500000E+02
         1        66        91  -1.0500000E+02
         1        66        96  -1.0500000E+02
         1        71        86  -1.0500000E+02
         1        71        91  -1.0500000E+02
         1        71        96  -1.0500000E+02
         1        76        86  -1.0500000E+02
         1        76        91  -1.0500000E+02
         1        76        96  -1.0500000E+02
         1        81        86  -1.0500000E+02
         1        81        91  -1.0500000E+02
         1        81        96  -1.0500000E+02
         1        86        86  -1.0500000E+02
         1        86        91  -1.0500000E+02
         1        86        96  -1.0500000E+02
         1        91        86  -1.0500000E+02
         1        91        91  -1.0500000E+02
         1        91        96  -1.0500000E+02
        51         0 # stress period 8
         1        11        86  -9.0000000E+01
         1        11        91  -9.0000000E+01
         1        11        96  -9.0000000E+01
         1        16        86  -9.0000000E+01
         1        16        91  -9.0000000E+01
         1        16        96  -9.0000000E+01
         1        21        86  -9.0000000E+01
         1        21        91  -9.0000000E+01
         1        21        96  -9.0000000E+01
         1        26        86  -9.0000000E+01
         1        26        91  -9.0000000E+01
         1        26        96  -9.0000000E+01
         1        31        86  -9.0000000E+01
         1        31        91  -9.0000000E+01
         1        31        96  -9.0000000E+01
         1        36        86  -9.0000000E+01
         1        36        91  -9.0000000E+01
         1        36        96  -9.0000000E+01
         1        41        86  -9.0000000E+01
         1        41        91  -9.0000000E+01
         1        41        96  -9.0000000E+01
         1        46        86  -9.0000000E+01
         1        46        91  -9.0000000E+01
         1        46        96  -9.0000000E+01
         1        51        86  -9.0000000E+01
         1        51        91  -9.0000000E+01
         1        51        96  -9.0000000E+01
         1        56        86  -9.0000000E+01
         1        56        91  -9.0000000E+01
         1        56        96  -9.0000000E+01
         1        61        86  -9.0000000E+01
         1        61        91  -9.0000000E+01
         1        61        96  -9.0000000E+01
         1        66        86  -9.0000000E+01
         1        66        91  -9.0000000E+01
         1        66        96  -9.0000000E+01
         1        71        86  -9.0000000E+01
         1        71        91  -9.0000000E+01
         1        71        96  -9.0000000E+01
         1        76        86  -9.0000000E+01
         1        76        91  -9.0000000E+01
         1        76        96  -9.0000000E+01
         1        81        86  -9.0000000E+01
         1        81        91  -9.0000000E+01
         1        81        96  -9.0000000E+01
         1        86        86  -9.0000000E+01
         1        86        91  -9.0000000E+01
         1        86        96  -9.0000000E+01
         1        91        86  -9.0000000E+01
         1        91        91  -9.0000000E+01
         1        91        96  -9.0000000E+01
        56         0 # stress period 9
         1        11        86  -9.0000000E+01
         1        11        91  -9.0000000E+01
         1        11        96  -9.0000000E+01
         1        16        86  -9.0000000E+01
         1        16        91  -9.0000000E+01
         1        16        96  -9.0000000E+01
         1        21        86  -9.0000000E+01
         1        21        91  -9.0000000E+01
         1        21        96  -9.0000000E+01
         1        26        86  -9.0000000E+01
         1        26        91  -9.0000000E+01
         1        26        96  -9.0000000E+01
         1        31        86  -9.0000000E+01
         1        31        91  -9.0000000E+01
         1        31        96  -9.0000000E+01
         1        36        86  -9.0000000E+01
         1        36        91  -9.0000000E+01
         1        36        96  -9.0000000E+01
         1        41        86  -9.0000000E+01
         1        41        91  -9.0000000E+01
         1        41        96  -9.0000000E+01
         1        46        86  -9.0000000E+01
         1        46        91  -9.0000000E+01
         1        46        96  -9.0000000E+01
         1        51        86  -9.0000000E+01
         1        51        91  -9.0000000E+01
         1        51        96  -9.0000000E+01
         1        56        86  -9.0000000E+01
         1        56        91  -9.0000000E+01
         1        56        96  -9.0000000E+01
         1        61        86  -9.0000000E+01
         1        61        91  -9.0000000E+01
         1        61        96  -9.0000000E+01
         1        66        86  -9.0000000E+01
         1        66        91  -9.0000000E+01
         1        66        96  -9.0000000E+01
         1        71        86  -9.0000000E+01
         1        71        91  -9.0000000E+01
         1        71        96  -9.0000000E+01
         1        76        86  -9.0000000E+01
         1        76        91  -9.0000000E+01
         1        76        96  -9.0000000E+01
         1        81        86  -9.0000000E+01
         1        81        91  -9.0000000E+01
         1        81        96  -9.0000000E+01
         1        86        86  -9.0000000E+01
         1        86        91  -9.0000000E+01
         1        86        96  -9.0000000E+01
         1        91        86  -9.0000000E+01
         1        91        91  -9.0000000E+01
         1        91        96  -9.0000000E+01
         1        11        51  -1.2000000E+03
         1        31        51  -1.2000000E+03
         1        51        51  -1.2000000E+03
         1        71        51  -1.2000000E+03
         1        91        51  -1.2000000E+03
