# MNW2 for MODFLOW, generated by Flopy.
252 0 0
well1 -1
            thiem 0 1 0 0
            0.50 
            20.00 0.00 21 145
            10.00 0
well2 -1
            thiem 0 1 0 0
            0.50 
            20.00 0.00 29 145
            10.00 0
well3 -1
            thiem 0 1 0 0
            0.50 
            20.00 0.00 37 145
            10.00 0
well4 -1
            thiem 0 1 0 0
            0.50 
            20.00 0.00 45 145
            10.00 0
well5 -1
            thiem 0 1 0 0
            0.50 
            20.00 0.00 53 145
            10.00 0
well6 -1
            thiem 0 1 0 0
            0.50 
            20.00 0.00 61 145
            10.00 0
well7 -1
            thiem 0 1 0 0
            0.50 
            20.00 0.00 69 145
            10.00 0
well8 -1
            thiem 0 1 0 0
            0.50 
            20.00 0.00 77 145
            10.00 0
well9 -1
            thiem 0 1 0 0
            0.50 
            20.00 0.00 85 145
            10.00 0
well10 -1
            thiem 0 1 0 0
            0.50 
            20.00 0.00 93 145
            10.00 0
well11 -1
            thiem 0 1 0 0
            0.50 
            20.00 0.00 101 145
            10.00 0
well12 -1
            thiem 0 1 0 0
            0.50 
            20.00 0.00 109 145
            10.00 0
well13 -1
            thiem 0 1 0 0
            0.50 
            20.00 0.00 117 145
            10.00 0
well14 -1
            thiem 0 1 0 0
            0.50 
            20.00 0.00 125 145
            10.00 0
well15 -1
            thiem 0 1 0 0
            0.50 
            20.00 0.00 133 145
            10.00 0
well16 -1
            thiem 0 1 0 0
            0.50 
            20.00 0.00 141 145
            10.00 0
well17 -1
            thiem 0 1 0 0
            0.50 
            20.00 0.00 149 145
            10.00 0
well18 -1
            thiem 0 1 0 0
            0.50 
            20.00 0.00 157 145
            10.00 0
well19 -1
            thiem 0 1 0 0
            0.50 
            20.00 0.00 165 145
            10.00 0
well20 -1
            thiem 0 1 0 0
            0.50 
            20.00 0.00 173 145
            10.00 0
well21 -1
            thiem 0 1 0 0
            0.50 
            20.00 0.00 181 145
            10.00 0
well22 -1
            thiem 0 1 0 0
            0.50 
            20.00 0.00 21 153
            10.00 0
well23 -1
            thiem 0 1 0 0
            0.50 
            20.00 0.00 29 153
            10.00 0
well24 -1
            thiem 0 1 0 0
            0.50 
            20.00 0.00 37 153
            10.00 0
well25 -1
            thiem 0 1 0 0
            0.50 
            20.00 0.00 45 153
            10.00 0
well26 -1
            thiem 0 1 0 0
            0.50 
            20.00 0.00 53 153
            10.00 0
well27 -1
            thiem 0 1 0 0
            0.50 
            20.00 0.00 61 153
            10.00 0
well28 -1
            thiem 0 1 0 0
            0.50 
            20.00 0.00 69 153
            10.00 0
well29 -1
            thiem 0 1 0 0
            0.50 
            20.00 0.00 77 153
            10.00 0
well30 -1
            thiem 0 1 0 0
            0.50 
            20.00 0.00 85 153
            10.00 0
well31 -1
            thiem 0 1 0 0
            0.50 
            20.00 0.00 93 153
            10.00 0
well32 -1
            thiem 0 1 0 0
            0.50 
            20.00 0.00 101 153
            10.00 0
well33 -1
            thiem 0 1 0 0
            0.50 
            20.00 0.00 109 153
            10.00 0
well34 -1
            thiem 0 1 0 0
            0.50 
            20.00 0.00 117 153
            10.00 0
well35 -1
            thiem 0 1 0 0
            0.50 
            20.00 0.00 125 153
            10.00 0
well36 -1
            thiem 0 1 0 0
            0.50 
            20.00 0.00 133 153
            10.00 0
well37 -1
            thiem 0 1 0 0
            0.50 
            20.00 0.00 141 153
            10.00 0
well38 -1
            thiem 0 1 0 0
            0.50 
            20.00 0.00 149 153
            10.00 0
well39 -1
            thiem 0 1 0 0
            0.50 
            20.00 0.00 157 153
            10.00 0
well40 -1
            thiem 0 1 0 0
            0.50 
            20.00 0.00 165 153
            10.00 0
well41 -1
            thiem 0 1 0 0
            0.50 
            20.00 0.00 173 153
            10.00 0
well42 -1
            thiem 0 1 0 0
            0.50 
            20.00 0.00 181 153
            10.00 0
well43 -1
            thiem 0 1 0 0
            0.50 
            20.00 0.00 21 161
            10.00 0
well44 -1
            thiem 0 1 0 0
            0.50 
            20.00 0.00 29 161
            10.00 0
well45 -1
            thiem 0 1 0 0
            0.50 
            20.00 0.00 37 161
            10.00 0
well46 -1
            thiem 0 1 0 0
            0.50 
            20.00 0.00 45 161
            10.00 0
well47 -1
            thiem 0 1 0 0
            0.50 
            20.00 0.00 53 161
            10.00 0
well48 -1
            thiem 0 1 0 0
            0.50 
            20.00 0.00 61 161
            10.00 0
well49 -1
            thiem 0 1 0 0
            0.50 
            20.00 0.00 69 161
            10.00 0
well50 -1
            thiem 0 1 0 0
            0.50 
            20.00 0.00 77 161
            10.00 0
well51 -1
            thiem 0 1 0 0
            0.50 
            20.00 0.00 85 161
            10.00 0
well52 -1
            thiem 0 1 0 0
            0.50 
            20.00 0.00 93 161
            10.00 0
well53 -1
            thiem 0 1 0 0
            0.50 
            20.00 0.00 101 161
            10.00 0
well54 -1
            thiem 0 1 0 0
            0.50 
            20.00 0.00 109 161
            10.00 0
well55 -1
            thiem 0 1 0 0
            0.50 
            20.00 0.00 117 161
            10.00 0
well56 -1
            thiem 0 1 0 0
            0.50 
            20.00 0.00 125 161
            10.00 0
well57 -1
            thiem 0 1 0 0
            0.50 
            20.00 0.00 133 161
            10.00 0
well58 -1
            thiem 0 1 0 0
            0.50 
            20.00 0.00 141 161
            10.00 0
well59 -1
            thiem 0 1 0 0
            0.50 
            20.00 0.00 149 161
            10.00 0
well60 -1
            thiem 0 1 0 0
            0.50 
            20.00 0.00 157 161
            10.00 0
well61 -1
            thiem 0 1 0 0
            0.50 
            20.00 0.00 165 161
            10.00 0
well62 -1
            thiem 0 1 0 0
            0.50 
            20.00 0.00 173 161
            10.00 0
well63 -1
            thiem 0 1 0 0
            0.50 
            20.00 0.00 181 161
            10.00 0
well64 -1
            thiem 0 1 0 0
            0.50 
            20.00 0.00 21 169
            10.00 0
well65 -1
            thiem 0 1 0 0
            0.50 
            20.00 0.00 29 169
            10.00 0
well66 -1
            thiem 0 1 0 0
            0.50 
            20.00 0.00 37 169
            10.00 0
well67 -1
            thiem 0 1 0 0
            0.50 
            20.00 0.00 45 169
            10.00 0
well68 -1
            thiem 0 1 0 0
            0.50 
            20.00 0.00 53 169
            10.00 0
well69 -1
            thiem 0 1 0 0
            0.50 
            20.00 0.00 61 169
            10.00 0
well70 -1
            thiem 0 1 0 0
            0.50 
            20.00 0.00 69 169
            10.00 0
well71 -1
            thiem 0 1 0 0
            0.50 
            20.00 0.00 77 169
            10.00 0
well72 -1
            thiem 0 1 0 0
            0.50 
            20.00 0.00 85 169
            10.00 0
well73 -1
            thiem 0 1 0 0
            0.50 
            20.00 0.00 93 169
            10.00 0
well74 -1
            thiem 0 1 0 0
            0.50 
            20.00 0.00 101 169
            10.00 0
well75 -1
            thiem 0 1 0 0
            0.50 
            20.00 0.00 109 169
            10.00 0
well76 -1
            thiem 0 1 0 0
            0.50 
            20.00 0.00 117 169
            10.00 0
well77 -1
            thiem 0 1 0 0
            0.50 
            20.00 0.00 125 169
            10.00 0
well78 -1
            thiem 0 1 0 0
            0.50 
            20.00 0.00 133 169
            10.00 0
well79 -1
            thiem 0 1 0 0
            0.50 
            20.00 0.00 141 169
            10.00 0
well80 -1
            thiem 0 1 0 0
            0.50 
            20.00 0.00 149 169
            10.00 0
well81 -1
            thiem 0 1 0 0
            0.50 
            20.00 0.00 157 169
            10.00 0
well82 -1
            thiem 0 1 0 0
            0.50 
            20.00 0.00 165 169
            10.00 0
well83 -1
            thiem 0 1 0 0
            0.50 
            20.00 0.00 173 169
            10.00 0
well84 -1
            thiem 0 1 0 0
            0.50 
            20.00 0.00 181 169
            10.00 0
well85 -1
            thiem 0 1 0 0
            0.50 
            20.00 0.00 21 177
            10.00 0
well86 -1
            thiem 0 1 0 0
            0.50 
            20.00 0.00 29 177
            10.00 0
well87 -1
            thiem 0 1 0 0
            0.50 
            20.00 0.00 37 177
            10.00 0
well88 -1
            thiem 0 1 0 0
            0.50 
            20.00 0.00 45 177
            10.00 0
well89 -1
            thiem 0 1 0 0
            0.50 
            20.00 0.00 53 177
            10.00 0
well90 -1
            thiem 0 1 0 0
            0.50 
            20.00 0.00 61 177
            10.00 0
well91 -1
            thiem 0 1 0 0
            0.50 
            20.00 0.00 69 177
            10.00 0
well92 -1
            thiem 0 1 0 0
            0.50 
            20.00 0.00 77 177
            10.00 0
well93 -1
            thiem 0 1 0 0
            0.50 
            20.00 0.00 85 177
            10.00 0
well94 -1
            thiem 0 1 0 0
            0.50 
            20.00 0.00 93 177
            10.00 0
well95 -1
            thiem 0 1 0 0
            0.50 
            20.00 0.00 101 177
            10.00 0
well96 -1
            thiem 0 1 0 0
            0.50 
            20.00 0.00 109 177
            10.00 0
well97 -1
            thiem 0 1 0 0
            0.50 
            20.00 0.00 117 177
            10.00 0
well98 -1
            thiem 0 1 0 0
            0.50 
            20.00 0.00 125 177
            10.00 0
well99 -1
            thiem 0 1 0 0
            0.50 
            20.00 0.00 133 177
            10.00 0
well100 -1
            thiem 0 1 0 0
            0.50 
            20.00 0.00 141 177
            10.00 0
well101 -1
            thiem 0 1 0 0
            0.50 
            20.00 0.00 149 177
            10.00 0
well102 -1
            thiem 0 1 0 0
            0.50 
            20.00 0.00 157 177
            10.00 0
well103 -1
            thiem 0 1 0 0
            0.50 
            20.00 0.00 165 177
            10.00 0
well104 -1
            thiem 0 1 0 0
            0.50 
            20.00 0.00 173 177
            10.00 0
well105 -1
            thiem 0 1 0 0
            0.50 
            20.00 0.00 181 185
            10.00 0
well106 -1
            thiem 0 1 0 0
            0.50 
            20.00 0.00 21 185
            10.00 0
well107 -1
            thiem 0 1 0 0
            0.50 
            20.00 0.00 29 185
            10.00 0
well108 -1
            thiem 0 1 0 0
            0.50 
            20.00 0.00 37 185
            10.00 0
well109 -1
            thiem 0 1 0 0
            0.50 
            20.00 0.00 45 185
            10.00 0
well110 -1
            thiem 0 1 0 0
            0.50 
            20.00 0.00 53 185
            10.00 0
well111 -1
            thiem 0 1 0 0
            0.50 
            20.00 0.00 61 185
            10.00 0
well112 -1
            thiem 0 1 0 0
            0.50 
            20.00 0.00 69 185
            10.00 0
well113 -1
            thiem 0 1 0 0
            0.50 
            20.00 0.00 77 185
            10.00 0
well114 -1
            thiem 0 1 0 0
            0.50 
            20.00 0.00 85 185
            10.00 0
well115 -1
            thiem 0 1 0 0
            0.50 
            20.00 0.00 93 185
            10.00 0
well116 -1
            thiem 0 1 0 0
            0.50 
            20.00 0.00 101 185
            10.00 0
well117 -1
            thiem 0 1 0 0
            0.50 
            20.00 0.00 109 185
            10.00 0
well118 -1
            thiem 0 1 0 0
            0.50 
            20.00 0.00 117 185
            10.00 0
well119 -1
            thiem 0 1 0 0
            0.50 
            20.00 0.00 125 185
            10.00 0
well120 -1
            thiem 0 1 0 0
            0.50 
            20.00 0.00 133 185
            10.00 0
well121 -1
            thiem 0 1 0 0
            0.50 
            20.00 0.00 141 185
            10.00 0
well122 -1
            thiem 0 1 0 0
            0.50 
            20.00 0.00 149 185
            10.00 0
well123 -1
            thiem 0 1 0 0
            0.50 
            20.00 0.00 157 185
            10.00 0
well124 -1
            thiem 0 1 0 0
            0.50 
            20.00 0.00 165 185
            10.00 0
well125 -1
            thiem 0 1 0 0
            0.50 
            20.00 0.00 173 185
            10.00 0
well126 -1
            thiem 0 1 0 0
            0.50 
            20.00 0.00 181 185
            10.00 0
well127 -1
            thiem 0 1 0 0
            0.50 
            20.00 0.00 21 193
            10.00 0
well128 -1
            thiem 0 1 0 0
            0.50 
            20.00 0.00 29 193
            10.00 0
well129 -1
            thiem 0 1 0 0
            0.50 
            20.00 0.00 37 193
            10.00 0
well130 -1
            thiem 0 1 0 0
            0.50 
            20.00 0.00 45 193
            10.00 0
well131 -1
            thiem 0 1 0 0
            0.50 
            20.00 0.00 53 193
            10.00 0
well132 -1
            thiem 0 1 0 0
            0.50 
            20.00 0.00 61 193
            10.00 0
well133 -1
            thiem 0 1 0 0
            0.50 
            20.00 0.00 69 193
            10.00 0
well134 -1
            thiem 0 1 0 0
            0.50 
            20.00 0.00 77 193
            10.00 0
well135 -1
            thiem 0 1 0 0
            0.50 
            20.00 0.00 85 193
            10.00 0
well136 -1
            thiem 0 1 0 0
            0.50 
            20.00 0.00 93 193
            10.00 0
well137 -1
            thiem 0 1 0 0
            0.50 
            20.00 0.00 101 193
            10.00 0
well138 -1
            thiem 0 1 0 0
            0.50 
            20.00 0.00 109 193
            10.00 0
well139 -1
            thiem 0 1 0 0
            0.50 
            20.00 0.00 117 193
            10.00 0
well140 -1
            thiem 0 1 0 0
            0.50 
            20.00 0.00 125 193
            10.00 0
well141 -1
            thiem 0 1 0 0
            0.50 
            20.00 0.00 133 193
            10.00 0
well142 -1
            thiem 0 1 0 0
            0.50 
            20.00 0.00 141 193
            10.00 0
well143 -1
            thiem 0 1 0 0
            0.50 
            20.00 0.00 149 193
            10.00 0
well144 -1
            thiem 0 1 0 0
            0.50 
            20.00 0.00 157 193
            10.00 0
well145 -1
            thiem 0 1 0 0
            0.50 
            20.00 0.00 165 193
            10.00 0
well146 -1
            thiem 0 1 0 0
            0.50 
            20.00 0.00 173 193
            10.00 0
well147 -1
            thiem 0 1 0 0
            0.50 
            20.00 0.00 181 193
            10.00 0
well148 -1
            thiem 0 1 0 0
            0.50 
            20.00 0.00 21 137
            10.00 0
well149 -1
            thiem 0 1 0 0
            0.50 
            20.00 0.00 29 137
            10.00 0
well150 -1
            thiem 0 1 0 0
            0.50 
            20.00 0.00 37 137
            10.00 0
well151 -1
            thiem 0 1 0 0
            0.50 
            20.00 0.00 45 137
            10.00 0
well152 -1
            thiem 0 1 0 0
            0.50 
            20.00 0.00 53 137
            10.00 0
well153 -1
            thiem 0 1 0 0
            0.50 
            20.00 0.00 61 137
            10.00 0
well154 -1
            thiem 0 1 0 0
            0.50 
            20.00 0.00 69 137
            10.00 0
well155 -1
            thiem 0 1 0 0
            0.50 
            20.00 0.00 77 137
            10.00 0
well156 -1
            thiem 0 1 0 0
            0.50 
            20.00 0.00 85 137
            10.00 0
well157 -1
            thiem 0 1 0 0
            0.50 
            20.00 0.00 93 137
            10.00 0
well158 -1
            thiem 0 1 0 0
            0.50 
            20.00 0.00 101 137
            10.00 0
well159 -1
            thiem 0 1 0 0
            0.50 
            20.00 0.00 109 137
            10.00 0
well160 -1
            thiem 0 1 0 0
            0.50 
            20.00 0.00 117 137
            10.00 0
well161 -1
            thiem 0 1 0 0
            0.50 
            20.00 0.00 125 137
            10.00 0
well162 -1
            thiem 0 1 0 0
            0.50 
            20.00 0.00 133 137
            10.00 0
well163 -1
            thiem 0 1 0 0
            0.50 
            20.00 0.00 141 137
            10.00 0
well164 -1
            thiem 0 1 0 0
            0.50 
            20.00 0.00 149 137
            10.00 0
well165 -1
            thiem 0 1 0 0
            0.50 
            20.00 0.00 157 137
            10.00 0
well166 -1
            thiem 0 1 0 0
            0.50 
            20.00 0.00 165 137
            10.00 0
well167 -1
            thiem 0 1 0 0
            0.50 
            20.00 0.00 173 137
            10.00 0
well168 -1
            thiem 0 1 0 0
            0.50 
            20.00 0.00 181 137
            10.00 0
well169 -1
            thiem 0 1 0 0
            0.50 
            20.00 0.00 21 129
            10.00 0
well170 -1
            thiem 0 1 0 0
            0.50 
            20.00 0.00 29 129
            10.00 0
well171 -1
            thiem 0 1 0 0
            0.50 
            20.00 0.00 37 129
            10.00 0
well172 -1
            thiem 0 1 0 0
            0.50 
            20.00 0.00 45 129
            10.00 0
well173 -1
            thiem 0 1 0 0
            0.50 
            20.00 0.00 53 129
            10.00 0
well174 -1
            thiem 0 1 0 0
            0.50 
            20.00 0.00 61 129
            10.00 0
well175 -1
            thiem 0 1 0 0
            0.50 
            20.00 0.00 69 129
            10.00 0
well176 -1
            thiem 0 1 0 0
            0.50 
            20.00 0.00 77 129
            10.00 0
well177 -1
            thiem 0 1 0 0
            0.50 
            20.00 0.00 85 129
            10.00 0
well178 -1
            thiem 0 1 0 0
            0.50 
            20.00 0.00 93 129
            10.00 0
well179 -1
            thiem 0 1 0 0
            0.50 
            20.00 0.00 101 129
            10.00 0
well180 -1
            thiem 0 1 0 0
            0.50 
            20.00 0.00 109 129
            10.00 0
well181 -1
            thiem 0 1 0 0
            0.50 
            20.00 0.00 117 129
            10.00 0
well182 -1
            thiem 0 1 0 0
            0.50 
            20.00 0.00 125 129
            10.00 0
well183 -1
            thiem 0 1 0 0
            0.50 
            20.00 0.00 133 129
            10.00 0
well184 -1
            thiem 0 1 0 0
            0.50 
            20.00 0.00 141 129
            10.00 0
well185 -1
            thiem 0 1 0 0
            0.50 
            20.00 0.00 149 129
            10.00 0
well186 -1
            thiem 0 1 0 0
            0.50 
            20.00 0.00 157 129
            10.00 0
well187 -1
            thiem 0 1 0 0
            0.50 
            20.00 0.00 165 129
            10.00 0
well188 -1
            thiem 0 1 0 0
            0.50 
            20.00 0.00 173 129
            10.00 0
well189 -1
            thiem 0 1 0 0
            0.50 
            20.00 0.00 181 129
            10.00 0
well190 -1
            thiem 0 1 0 0
            0.50 
            20.00 0.00 21 121
            10.00 0
well191 -1
            thiem 0 1 0 0
            0.50 
            20.00 0.00 29 121
            10.00 0
well192 -1
            thiem 0 1 0 0
            0.50 
            20.00 0.00 37 121
            10.00 0
well193 -1
            thiem 0 1 0 0
            0.50 
            20.00 0.00 45 121
            10.00 0
well194 -1
            thiem 0 1 0 0
            0.50 
            20.00 0.00 53 121
            10.00 0
well195 -1
            thiem 0 1 0 0
            0.50 
            20.00 0.00 61 121
            10.00 0
well196 -1
            thiem 0 1 0 0
            0.50 
            20.00 0.00 69 121
            10.00 0
well197 -1
            thiem 0 1 0 0
            0.50 
            20.00 0.00 77 121
            10.00 0
well198 -1
            thiem 0 1 0 0
            0.50 
            20.00 0.00 85 121
            10.00 0
well199 -1
            thiem 0 1 0 0
            0.50 
            20.00 0.00 93 121
            10.00 0
well200 -1
            thiem 0 1 0 0
            0.50 
            20.00 0.00 101 121
            10.00 0
well201 -1
            thiem 0 1 0 0
            0.50 
            20.00 0.00 109 121
            10.00 0
well202 -1
            thiem 0 1 0 0
            0.50 
            20.00 0.00 117 121
            10.00 0
well203 -1
            thiem 0 1 0 0
            0.50 
            20.00 0.00 125 121
            10.00 0
well204 -1
            thiem 0 1 0 0
            0.50 
            20.00 0.00 133 121
            10.00 0
well205 -1
            thiem 0 1 0 0
            0.50 
            20.00 0.00 141 121
            10.00 0
well206 -1
            thiem 0 1 0 0
            0.50 
            20.00 0.00 149 121
            10.00 0
well207 -1
            thiem 0 1 0 0
            0.50 
            20.00 0.00 157 121
            10.00 0
well208 -1
            thiem 0 1 0 0
            0.50 
            20.00 0.00 165 121
            10.00 0
well209 -1
            thiem 0 1 0 0
            0.50 
            20.00 0.00 173 121
            10.00 0
well210 -1
            thiem 0 1 0 0
            0.50 
            20.00 0.00 181 121
            10.00 0
well211 -1
            thiem 0 1 0 0
            0.50 
            20.00 0.00 21 113
            10.00 0
well212 -1
            thiem 0 1 0 0
            0.50 
            20.00 0.00 29 113
            10.00 0
well213 -1
            thiem 0 1 0 0
            0.50 
            20.00 0.00 37 113
            10.00 0
well214 -1
            thiem 0 1 0 0
            0.50 
            20.00 0.00 45 113
            10.00 0
well215 -1
            thiem 0 1 0 0
            0.50 
            20.00 0.00 53 113
            10.00 0
well216 -1
            thiem 0 1 0 0
            0.50 
            20.00 0.00 61 113
            10.00 0
well217 -1
            thiem 0 1 0 0
            0.50 
            20.00 0.00 69 113
            10.00 0
well218 -1
            thiem 0 1 0 0
            0.50 
            20.00 0.00 77 113
            10.00 0
well219 -1
            thiem 0 1 0 0
            0.50 
            20.00 0.00 85 113
            10.00 0
well220 -1
            thiem 0 1 0 0
            0.50 
            20.00 0.00 93 113
            10.00 0
well221 -1
            thiem 0 1 0 0
            0.50 
            20.00 0.00 101 113
            10.00 0
well222 -1
            thiem 0 1 0 0
            0.50 
            20.00 0.00 109 113
            10.00 0
well223 -1
            thiem 0 1 0 0
            0.50 
            20.00 0.00 117 113
            10.00 0
well224 -1
            thiem 0 1 0 0
            0.50 
            20.00 0.00 125 113
            10.00 0
well225 -1
            thiem 0 1 0 0
            0.50 
            20.00 0.00 133 113
            10.00 0
well226 -1
            thiem 0 1 0 0
            0.50 
            20.00 0.00 141 113
            10.00 0
well227 -1
            thiem 0 1 0 0
            0.50 
            20.00 0.00 149 113
            10.00 0
well228 -1
            thiem 0 1 0 0
            0.50 
            20.00 0.00 157 113
            10.00 0
well229 -1
            thiem 0 1 0 0
            0.50 
            20.00 0.00 165 113
            10.00 0
well230 -1
            thiem 0 1 0 0
            0.50 
            20.00 0.00 173 113
            10.00 0
well231 -1
            thiem 0 1 0 0
            0.50 
            20.00 0.00 181 113
            10.00 0
well232 -1
            thiem 0 1 0 0
            0.50 
            20.00 0.00 21 105
            10.00 0
well233 -1
            thiem 0 1 0 0
            0.50 
            20.00 0.00 29 105
            10.00 0
well234 -1
            thiem 0 1 0 0
            0.50 
            20.00 0.00 37 105
            10.00 0
well235 -1
            thiem 0 1 0 0
            0.50 
            20.00 0.00 45 105
            10.00 0
well236 -1
            thiem 0 1 0 0
            0.50 
            20.00 0.00 53 105
            10.00 0
well237 -1
            thiem 0 1 0 0
            0.50 
            20.00 0.00 61 105
            10.00 0
well238 -1
            thiem 0 1 0 0
            0.50 
            20.00 0.00 69 105
            10.00 0
well239 -1
            thiem 0 1 0 0
            0.50 
            20.00 0.00 77 105
            10.00 0
well240 -1
            thiem 0 1 0 0
            0.50 
            20.00 0.00 85 105
            10.00 0
well241 -1
            thiem 0 1 0 0
            0.50 
            20.00 0.00 93 105
            10.00 0
well242 -1
            thiem 0 1 0 0
            0.50 
            20.00 0.00 101 105
            10.00 0
well243 -1
            thiem 0 1 0 0
            0.50 
            20.00 0.00 109 105
            10.00 0
well244 -1
            thiem 0 1 0 0
            0.50 
            20.00 0.00 117 105
            10.00 0
well245 -1
            thiem 0 1 0 0
            0.50 
            20.00 0.00 125 105
            10.00 0
well246 -1
            thiem 0 1 0 0
            0.50 
            20.00 0.00 133 105
            10.00 0
well247 -1
            thiem 0 1 0 0
            0.50 
            20.00 0.00 141 105
            10.00 0
well248 -1
            thiem 0 1 0 0
            0.50 
            20.00 0.00 149 105
            10.00 0
well249 -1
            thiem 0 1 0 0
            0.50 
            20.00 0.00 157 105
            10.00 0
well250 -1
            thiem 0 1 0 0
            0.50 
            20.00 0.00 165 105
            10.00 0
well251 -1
            thiem 0 1 0 0
            0.50 
            20.00 0.00 173 105
            10.00 0
well252 -1
            thiem 0 1 0 0
            0.50 
            20.00 0.00 181 105
            10.00 0
252  Stress Period 1
well1 0.00
well10 0.00
well100 0.00
well101 0.00
well102 0.00
well103 0.00
well104 0.00
well105 0.00
well106 0.00
well107 0.00
well108 0.00
well109 0.00
well11 0.00
well110 0.00
well111 0.00
well112 0.00
well113 0.00
well114 0.00
well115 0.00
well116 0.00
well117 0.00
well118 0.00
well119 0.00
well12 0.00
well120 0.00
well121 0.00
well122 0.00
well123 0.00
well124 0.00
well125 0.00
well126 0.00
well127 0.00
well128 0.00
well129 0.00
well13 0.00
well130 0.00
well131 0.00
well132 0.00
well133 0.00
well134 0.00
well135 0.00
well136 0.00
well137 0.00
well138 0.00
well139 0.00
well14 0.00
well140 0.00
well141 0.00
well142 0.00
well143 0.00
well144 0.00
well145 0.00
well146 0.00
well147 0.00
well148 0.00
well149 0.00
well15 0.00
well150 0.00
well151 0.00
well152 0.00
well153 0.00
well154 0.00
well155 0.00
well156 0.00
well157 0.00
well158 0.00
well159 0.00
well16 0.00
well160 0.00
well161 0.00
well162 0.00
well163 0.00
well164 0.00
well165 0.00
well166 0.00
well167 0.00
well168 0.00
well169 0.00
well17 0.00
well170 0.00
well171 0.00
well172 0.00
well173 0.00
well174 0.00
well175 0.00
well176 0.00
well177 0.00
well178 0.00
well179 0.00
well18 0.00
well180 0.00
well181 0.00
well182 0.00
well183 0.00
well184 0.00
well185 0.00
well186 0.00
well187 0.00
well188 0.00
well189 0.00
well19 0.00
well190 0.00
well191 0.00
well192 0.00
well193 0.00
well194 0.00
well195 0.00
well196 0.00
well197 0.00
well198 0.00
well199 0.00
well2 0.00
well20 0.00
well200 0.00
well201 0.00
well202 0.00
well203 0.00
well204 0.00
well205 0.00
well206 0.00
well207 0.00
well208 0.00
well209 0.00
well21 0.00
well210 0.00
well211 0.00
well212 0.00
well213 0.00
well214 0.00
well215 0.00
well216 0.00
well217 0.00
well218 0.00
well219 0.00
well22 0.00
well220 0.00
well221 0.00
well222 0.00
well223 0.00
well224 0.00
well225 0.00
well226 0.00
well227 0.00
well228 0.00
well229 0.00
well23 0.00
well230 0.00
well231 0.00
well232 0.00
well233 0.00
well234 0.00
well235 0.00
well236 0.00
well237 0.00
well238 0.00
well239 0.00
well24 0.00