# Discretization file for MODFLOW, generated by Flopy.
         1       100       100        10         4         2
  0
CONSTANT    5.000000E+01                           #delr                          
CONSTANT    5.000000E+01                           #delc                          
CONSTANT    8.000000E+01                           #model_top                     
CONSTANT    0.000000E+00                           #botm layer 1                  
      1.000000             1  1.000000  SS 
    100.000000          5760  1.000000  TR 
    100.000000          5760  1.000000  TR 
    100.000000          5760  1.000000  TR 
    100.000000          5760  1.000000  TR 
    100.000000          5760  1.000000  TR 
    100.000000          5760  1.000000  TR 
    100.000000          5760  1.000000  TR 
    100.000000          5760  1.000000  TR 
    100.000000          5760  1.000000  TR 
