# PCG for MODFLOW, generated by Flopy.
50 30 1 0
1e-03 1e-03 1.0 0 0 3 1.0 
