# MNW2 for MODFLOW, generated by Flopy.
56 0 0
well1 -1
            thiem 0 1 0 0
            0.50 
            20.00 0.00 12 87
            50.00 0
well2 -1
            thiem 0 1 0 0
            0.50 
            20.00 0.00 12 92
            50.00 0
well3 -1
            thiem 0 1 0 0
            0.50 
            20.00 0.00 12 97
            50.00 0
well4 -1
            thiem 0 1 0 0
            0.50 
            20.00 0.00 17 87
            50.00 0
well5 -1
            thiem 0 1 0 0
            0.50 
            20.00 0.00 17 92
            50.00 0
well6 -1
            thiem 0 1 0 0
            0.50 
            20.00 0.00 17 97
            50.00 0
well7 -1
            thiem 0 1 0 0
            0.50 
            20.00 0.00 22 87
            50.00 0
well8 -1
            thiem 0 1 0 0
            0.50 
            20.00 0.00 22 92
            50.00 0
well9 -1
            thiem 0 1 0 0
            0.50 
            20.00 0.00 22 97
            50.00 0
well10 -1
            thiem 0 1 0 0
            0.50 
            20.00 0.00 27 87
            50.00 0
well11 -1
            thiem 0 1 0 0
            0.50 
            20.00 0.00 27 92
            50.00 0
well12 -1
            thiem 0 1 0 0
            0.50 
            20.00 0.00 27 97
            50.00 0
well13 -1
            thiem 0 1 0 0
            0.50 
            20.00 0.00 32 87
            50.00 0
well14 -1
            thiem 0 1 0 0
            0.50 
            20.00 0.00 32 92
            50.00 0
well15 -1
            thiem 0 1 0 0
            0.50 
            20.00 0.00 32 97
            50.00 0
well16 -1
            thiem 0 1 0 0
            0.50 
            20.00 0.00 37 87
            50.00 0
well17 -1
            thiem 0 1 0 0
            0.50 
            20.00 0.00 37 92
            50.00 0
well18 -1
            thiem 0 1 0 0
            0.50 
            20.00 0.00 37 97
            50.00 0
well19 -1
            thiem 0 1 0 0
            0.50 
            20.00 0.00 42 87
            50.00 0
well20 -1
            thiem 0 1 0 0
            0.50 
            20.00 0.00 42 92
            50.00 0
well21 -1
            thiem 0 1 0 0
            0.50 
            20.00 0.00 42 97
            50.00 0
well22 -1
            thiem 0 1 0 0
            0.50 
            20.00 0.00 47 87
            50.00 0
well23 -1
            thiem 0 1 0 0
            0.50 
            20.00 0.00 47 92
            50.00 0
well24 -1
            thiem 0 1 0 0
            0.50 
            20.00 0.00 47 97
            50.00 0
well25 -1
            thiem 0 1 0 0
            0.50 
            20.00 0.00 52 87
            50.00 0
well26 -1
            thiem 0 1 0 0
            0.50 
            20.00 0.00 52 92
            50.00 0
well27 -1
            thiem 0 1 0 0
            0.50 
            20.00 0.00 52 97
            50.00 0
well28 -1
            thiem 0 1 0 0
            0.50 
            20.00 0.00 57 87
            50.00 0
well29 -1
            thiem 0 1 0 0
            0.50 
            20.00 0.00 57 92
            50.00 0
well30 -1
            thiem 0 1 0 0
            0.50 
            20.00 0.00 57 97
            50.00 0
well31 -1
            thiem 0 1 0 0
            0.50 
            20.00 0.00 62 87
            50.00 0
well32 -1
            thiem 0 1 0 0
            0.50 
            20.00 0.00 62 92
            50.00 0
well33 -1
            thiem 0 1 0 0
            0.50 
            20.00 0.00 62 97
            50.00 0
well34 -1
            thiem 0 1 0 0
            0.50 
            20.00 0.00 67 87
            50.00 0
well35 -1
            thiem 0 1 0 0
            0.50 
            20.00 0.00 67 92
            50.00 0
well36 -1
            thiem 0 1 0 0
            0.50 
            20.00 0.00 67 97
            50.00 0
well37 -1
            thiem 0 1 0 0
            0.50 
            20.00 0.00 72 87
            50.00 0
well38 -1
            thiem 0 1 0 0
            0.50 
            20.00 0.00 72 92
            50.00 0
well39 -1
            thiem 0 1 0 0
            0.50 
            20.00 0.00 72 97
            50.00 0
well40 -1
            thiem 0 1 0 0
            0.50 
            20.00 0.00 77 87
            50.00 0
well41 -1
            thiem 0 1 0 0
            0.50 
            20.00 0.00 77 92
            50.00 0
well42 -1
            thiem 0 1 0 0
            0.50 
            20.00 0.00 77 97
            50.00 0
well43 -1
            thiem 0 1 0 0
            0.50 
            20.00 0.00 82 87
            50.00 0
well44 -1
            thiem 0 1 0 0
            0.50 
            20.00 0.00 82 92
            50.00 0
well45 -1
            thiem 0 1 0 0
            0.50 
            20.00 0.00 82 97
            50.00 0
well46 -1
            thiem 0 1 0 0
            0.50 
            20.00 0.00 87 87
            50.00 0
well47 -1
            thiem 0 1 0 0
            0.50 
            20.00 0.00 87 92
            50.00 0
well48 -1
            thiem 0 1 0 0
            0.50 
            20.00 0.00 87 97
            50.00 0
well49 -1
            thiem 0 1 0 0
            0.50 
            20.00 0.00 92 87
            50.00 0
well50 -1
            thiem 0 1 0 0
            0.50 
            20.00 0.00 92 92
            50.00 0
well51 -1
            thiem 0 1 0 0
            0.50 
            20.00 0.00 92 97
            50.00 0
well52 -1
            thiem 0 1 0 0
            0.50 
            20.00 0.00 12 52
            50.00 0
well53 -1
            thiem 0 1 0 0
            0.50 
            20.00 0.00 32 52
            50.00 0
well54 -1
            thiem 0 1 0 0
            0.50 
            20.00 0.00 52 52
            50.00 0
well55 -1
            thiem 0 1 0 0
            0.50 
            20.00 0.00 72 52
            50.00 0
well56 -1
            thiem 0 1 0 0
            0.50 
            20.00 0.00 92 52
            50.00 0
56  Stress Period 1
well1 0.00
well10 0.00
well11 0.00
well12 0.00
well13 0.00
well14 0.00
well15 0.00
well16 0.00
well17 0.00
well18 0.00
well19 0.00
well2 0.00
well20 0.00
well21 0.00
well22 0.00
well23 0.00
well24 0.00
well25 0.00
well26 0.00
well27 0.00
well28 0.00
well29 0.00
well3 0.00
well30 0.00
well31 0.00
well32 0.00
well33 0.00
well34 0.00
well35 0.00
well36 0.00
well37 0.00
well38 0.00
well39 0.00
well4 0.00
well40 0.00
well41 0.00
well42 0.00
well43 0.00
well44 0.00
well45 0.00
well46 0.00
well47 0.00
well48 0.00
well49 0.00
well5 0.00
well50 0.00
well51 0.00
well52 0.00
well53 0.00
well54 0.00
well55 0.00
well56 0.00
well6 0.00
well7 0.00
well8 0.00
well9 0.00
56  Stress Period 2
well1 -1000.00
well10 -1000.00
well11 -1000.00
well12 -1000.00
well13 -1000.00
well14 -1000.00
well15 -1000.00
well16 -1000.00
well17 -1000.00
well18 -1000.00
well19 -1000.00
well2 -1000.00
well20 -1000.00
well21 -1000.00
well22 -1000.00
well23 -1000.00
well24 -1000.00
well25 -1000.00
well26 -1000.00
well27 -1000.00
well28 -1000.00
well29 -1000.00
well3 -1000.00
well30 -1000.00
well31 -1000.00
well32 -1000.00
well33 -1000.00
well34 -1000.00
well35 -1000.00
well36 -1000.00
well37 -1000.00
well38 -1000.00
well39 -1000.00
well4 -1000.00
well40 -1000.00
well41 -1000.00
well42 -1000.00
well43 -1000.00
well44 -1000.00
well45 -1000.00
well46 -1000.00
well47 -1000.00
well48 -1000.00
well49 -1000.00
well5 -1000.00
well50 -1000.00
well51 -1000.00
well52 -1000.00
well53 -1000.00
well54 -1000.00
well55 -1000.00
well56 -1000.00
well6 -1000.00
well7 -1000.00
well8 -1000.00
well9 -1000.00
56  Stress Period 3
well1 -1000.00
well10 -1000.00
well11 -1000.00
well12 -1000.00
well13 -1000.00
well14 -1000.00
well15 -1000.00
well16 -1000.00
well17 -1000.00
well18 -1000.00
well19 -1000.00
well2 -1000.00
well20 -1000.00
well21 -1000.00
well22 -1000.00
well23 -1000.00
well24 -1000.00
well25 -1000.00
well26 -1000.00
well27 -1000.00
well28 -1000.00
well29 -1000.00
well3 -1000.00
well30 -1000.00
well31 -1000.00
well32 -1000.00
well33 -1000.00
well34 -1000.00
well35 -1000.00
well36 -1000.00
well37 -1000.00
well38 -1000.00
well39 -1000.00
well4 -1000.00
well40 -1000.00
well41 -1000.00
well42 -1000.00
well43 -1000.00
well44 -1000.00
well45 -1000.00
well46 -1000.00
well47 -1000.00
well48 -1000.00
well49 -1000.00
well5 -1000.00
well50 -1000.00
well51 -1000.00
well52 -1000.00
well53 -1000.00
well54 -1000.00
well55 -1000.00
well56 -1000.00
well6 -1000.00
well7 -1000.00
well8 -1000.00
well9 -1000.00
56  Stress Period 4
well1 -1000.00
well10 -1000.00
well11 -1000.00
well12 -1000.00
well13 -1000.00
well14 -1000.00
well15 -1000.00
well16 -1000.00
well17 -1000.00
well18 -1000.00
well19 -1000.00
well2 -1000.00
well20 -1000.00
well21 -1000.00
well22 -1000.00
well23 -1000.00
well24 -1000.00
well25 -1000.00
well26 -1000.00
well27 -1000.00
well28 -1000.00
well29 -1000.00
well3 -1000.00
well30 -1000.00
well31 -1000.00
well32 -1000.00
well33 -1000.00
well34 -1000.00
well35 -1000.00
well36 -1000.00
well37 -1000.00
well38 -1000.00
well39 -1000.00
well4 -1000.00
well40 -1000.00
well41 -1000.00
well42 -1000.00
well43 -1000.00
well44 -1000.00
well45 -1000.00
well46 -1000.00
well47 -1000.00
well48 -1000.00
well49 -1000.00
well5 -1000.00
well50 -1000.00
well51 -1000.00
well52 -1000.00
well53 -1000.00
well54 -1000.00
well55 -1000.00
well56 -1000.00
well6 -1000.00
well7 -1000.00
well8 -1000.00
well9 -1000.00
56  Stress Period 5
well1 -1000.00
well10 -1000.00
well11 -1000.00
well12 -1000.00
well13 -1000.00
well14 -1000.00
well15 -1000.00
well16 -1000.00
well17 -1000.00
well18 -1000.00
well19 -1000.00
well2 -1000.00
well20 -1000.00
well21 -1000.00
well22 -1000.00
well23 -1000.00
well24 -1000.00
well25 -1000.00
well26 -1000.00
well27 -1000.00
well28 -1000.00
well29 -1000.00
well3 -1000.00
well30 -1000.00
well31 -1000.00
well32 -1000.00
well33 -1000.00
well34 -1000.00
well35 -1000.00
well36 -1000.00
well37 -1000.00
well38 -1000.00
well39 -1000.00
well4 -1000.00
well40 -1000.00
well41 -1000.00
well42 -1000.00
well43 -1000.00
well44 -1000.00
well45 -1000.00
well46 -1000.00
well47 -1000.00
well48 -1000.00
well49 -1000.00
well5 -1000.00
well50 -1000.00
well51 -1000.00
well52 -1000.00
well53 -1000.00
well54 -1000.00
well55 -1000.00
well56 -1000.00
well6 -1000.00
well7 -1000.00
well8 -1000.00
well9 -1000.00
56  Stress Period 6
well1 -1000.00
well10 -1000.00
well11 -1000.00
well12 -1000.00
well13 -1000.00
well14 -1000.00
well15 -1000.00
well16 -1000.00
well17 -1000.00
well18 -1000.00
well19 -1000.00
well2 -1000.00
well20 -1000.00
well21 -1000.00
well22 -1000.00
well23 -1000.00
well24 -1000.00
well25 -1000.00
well26 -1000.00
well27 -1000.00
well28 -1000.00
well29 -1000.00
well3 -1000.00
well30 -1000.00
well31 -1000.00
well32 -1000.00
well33 -1000.00
well34 -1000.00
well35 -1000.00
well36 -1000.00
well37 -1000.00
well38 -1000.00
well39 -1000.00
well4 -1000.00
well40 -1000.00
well41 -1000.00
well42 -1000.00
well43 -1000.00
well44 -1000.00
well45 -1000.00
well46 -1000.00
well47 -1000.00
well48 -1000.00
well49 -1000.00
well5 -1000.00
well50 -1000.00
well51 -1000.00
well52 -1000.00
well53 -1000.00
well54 -1000.00
well55 -1000.00
well56 -1000.00
well6 -1000.00
well7 -1000.00
well8 -1000.00
well9 -1000.00
56  Stress Period 7
well1 -1000.00
well10 -1000.00
well11 -1000.00
well12 -1000.00
well13 -1000.00
well14 -1000.00
well15 -1000.00
well16 -1000.00
well17 -1000.00
well18 -1000.00
well19 -1000.00
well2 -1000.00
well20 -1000.00
well21 -1000.00
well22 -1000.00
well23 -1000.00
well24 -1000.00
well25 -1000.00
well26 -1000.00
well27 -1000.00
well28 -1000.00
well29 -1000.00
well3 -1000.00
well30 -1000.00
well31 -1000.00
well32 -1000.00
well33 -1000.00
well34 -1000.00
well35 -1000.00
well36 -1000.00
well37 -1000.00
well38 -1000.00
well39 -1000.00
well4 -1000.00
well40 -1000.00
well41 -1000.00
well42 -1000.00
well43 -1000.00
well44 -1000.00
well45 -1000.00
well46 -1000.00
well47 -1000.00
well48 -1000.00
well49 -1000.00
well5 -1000.00
well50 -1000.00
well51 -1000.00
well52 -1000.00
well53 -1000.00
well54 -1000.00
well55 -1000.00
well56 -1000.00
well6 -1000.00
well7 -1000.00
well8 -1000.00
well9 -1000.00
56  Stress Period 8
well1 -1000.00
well10 -1000.00
well11 -1000.00
well12 -1000.00
well13 -1000.00
well14 -1000.00
well15 -1000.00
well16 -1000.00
well17 -1000.00
well18 -1000.00
well19 -1000.00
well2 -1000.00
well20 -1000.00
well21 -1000.00
well22 -1000.00
well23 -1000.00
well24 -1000.00
well25 -1000.00
well26 -1000.00
well27 -1000.00
well28 -1000.00
well29 -1000.00
well3 -1000.00
well30 -1000.00
well31 -1000.00
well32 -1000.00
well33 -1000.00
well34 -1000.00
well35 -1000.00
well36 -1000.00
well37 -1000.00
well38 -1000.00
well39 -1000.00
well4 -1000.00
well40 -1000.00
well41 -1000.00
well42 -1000.00
well43 -1000.00
well44 -1000.00
well45 -1000.00
well46 -1000.00
well47 -1000.00
well48 -1000.00
well49 -1000.00
well5 -1000.00
well50 -1000.00
well51 -1000.00
well52 -1000.00
well53 -1000.00
well54 -1000.00
well55 -1000.00
well56 -1000.00
well6 -1000.00
well7 -1000.00
well8 -1000.00
well9 -1000.00
56  Stress Period 9
well1 -1000.00
well10 -1000.00
well11 -1000.00
well12 -1000.00
well13 -1000.00
well14 -1000.00
well15 -1000.00
well16 -1000.00
well17 -1000.00
well18 -1000.00
well19 -1000.00
well2 -1000.00
well20 -1000.00
well21 -1000.00
well22 -1000.00
well23 -1000.00
well24 -1000.00
well25 -1000.00
well26 -1000.00
well27 -1000.00
well28 -1000.00
well29 -1000.00
well3 -1000.00
well30 -1000.00
well31 -1000.00
well32 -1000.00
well33 -1000.00
well34 -1000.00
well35 -1000.00
well36 -1000.00
well37 -1000.00
well38 -1000.00
well39 -1000.00
well4 -1000.00
well40 -1000.00
well41 -1000.00
well42 -1000.00
well43 -1000.00
well44 -1000.00
well45 -1000.00
well46 -1000.00
well47 -1000.00
well48 -1000.00
well49 -1000.00
well5 -1000.00
well50 -1000.00
well51 -1000.00
well52 -1000.00
well53 -1000.00
well54 -1000.00
well55 -1000.00
well56 -1000.00
well6 -1000.00
well7 -1000.00
well8 -1000.00
well9 -1000.00
56  Stress Period 10
well1 -1000.00
well10 -1000.00
well11 -1000.00
well12 -1000.00
well13 -1000.00
well14 -1000.00
well15 -1000.00
well16 -1000.00
well17 -1000.00
well18 -1000.00
well19 -1000.00
well2 -1000.00
well20 -1000.00
well21 -1000.00
well22 -1000.00
well23 -1000.00
well24 -1000.00
well25 -1000.00
well26 -1000.00
well27 -1000.00
well28 -1000.00
well29 -1000.00
well3 -1000.00
well30 -1000.00
well31 -1000.00
well32 -1000.00
well33 -1000.00
well34 -1000.00
well35 -1000.00
well36 -1000.00
well37 -1000.00
well38 -1000.00
well39 -1000.00
well4 -1000.00
well40 -1000.00
well41 -1000.00
well42 -1000.00
well43 -1000.00
well44 -1000.00
well45 -1000.00
well46 -1000.00
well47 -1000.00
well48 -1000.00
well49 -1000.00
well5 -1000.00
well50 -1000.00
well51 -1000.00
well52 -1000.00
well53 -1000.00
well54 -1000.00
well55 -1000.00
well56 -1000.00
well6 -1000.00
well7 -1000.00
well8 -1000.00
well9 -1000.00
