# MNW2 for MODFLOW, generated by Flopy.
252 0 0
well1 -1
            thiem 0 1 0 0
            0.50 
            20.00 0.00 51 361
            10.00 0
well2 -1
            thiem 0 1 0 0
            0.50 
            20.00 0.00 71 361
            10.00 0
well3 -1
            thiem 0 1 0 0
            0.50 
            20.00 0.00 91 361
            10.00 0
well4 -1
            thiem 0 1 0 0
            0.50 
            20.00 0.00 111 361
            10.00 0
well5 -1
            thiem 0 1 0 0
            0.50 
            20.00 0.00 131 361
            10.00 0
well6 -1
            thiem 0 1 0 0
            0.50 
            20.00 0.00 151 361
            10.00 0
well7 -1
            thiem 0 1 0 0
            0.50 
            20.00 0.00 171 361
            10.00 0
well8 -1
            thiem 0 1 0 0
            0.50 
            20.00 0.00 191 361
            10.00 0
well9 -1
            thiem 0 1 0 0
            0.50 
            20.00 0.00 211 361
            10.00 0
well10 -1
            thiem 0 1 0 0
            0.50 
            20.00 0.00 231 361
            10.00 0
well11 -1
            thiem 0 1 0 0
            0.50 
            20.00 0.00 251 361
            10.00 0
well12 -1
            thiem 0 1 0 0
            0.50 
            20.00 0.00 271 361
            10.00 0
well13 -1
            thiem 0 1 0 0
            0.50 
            20.00 0.00 291 361
            10.00 0
well14 -1
            thiem 0 1 0 0
            0.50 
            20.00 0.00 311 361
            10.00 0
well15 -1
            thiem 0 1 0 0
            0.50 
            20.00 0.00 331 361
            10.00 0
well16 -1
            thiem 0 1 0 0
            0.50 
            20.00 0.00 351 361
            10.00 0
well17 -1
            thiem 0 1 0 0
            0.50 
            20.00 0.00 371 361
            10.00 0
well18 -1
            thiem 0 1 0 0
            0.50 
            20.00 0.00 391 361
            10.00 0
well19 -1
            thiem 0 1 0 0
            0.50 
            20.00 0.00 411 361
            10.00 0
well20 -1
            thiem 0 1 0 0
            0.50 
            20.00 0.00 431 361
            10.00 0
well21 -1
            thiem 0 1 0 0
            0.50 
            20.00 0.00 451 361
            10.00 0
well22 -1
            thiem 0 1 0 0
            0.50 
            20.00 0.00 51 381
            10.00 0
well23 -1
            thiem 0 1 0 0
            0.50 
            20.00 0.00 71 381
            10.00 0
well24 -1
            thiem 0 1 0 0
            0.50 
            20.00 0.00 91 381
            10.00 0
well25 -1
            thiem 0 1 0 0
            0.50 
            20.00 0.00 111 381
            10.00 0
well26 -1
            thiem 0 1 0 0
            0.50 
            20.00 0.00 131 381
            10.00 0
well27 -1
            thiem 0 1 0 0
            0.50 
            20.00 0.00 151 381
            10.00 0
well28 -1
            thiem 0 1 0 0
            0.50 
            20.00 0.00 171 381
            10.00 0
well29 -1
            thiem 0 1 0 0
            0.50 
            20.00 0.00 191 381
            10.00 0
well30 -1
            thiem 0 1 0 0
            0.50 
            20.00 0.00 211 381
            10.00 0
well31 -1
            thiem 0 1 0 0
            0.50 
            20.00 0.00 231 381
            10.00 0
well32 -1
            thiem 0 1 0 0
            0.50 
            20.00 0.00 251 381
            10.00 0
well33 -1
            thiem 0 1 0 0
            0.50 
            20.00 0.00 271 381
            10.00 0
well34 -1
            thiem 0 1 0 0
            0.50 
            20.00 0.00 291 381
            10.00 0
well35 -1
            thiem 0 1 0 0
            0.50 
            20.00 0.00 311 381
            10.00 0
well36 -1
            thiem 0 1 0 0
            0.50 
            20.00 0.00 331 381
            10.00 0
well37 -1
            thiem 0 1 0 0
            0.50 
            20.00 0.00 351 381
            10.00 0
well38 -1
            thiem 0 1 0 0
            0.50 
            20.00 0.00 371 381
            10.00 0
well39 -1
            thiem 0 1 0 0
            0.50 
            20.00 0.00 391 381
            10.00 0
well40 -1
            thiem 0 1 0 0
            0.50 
            20.00 0.00 411 381
            10.00 0
well41 -1
            thiem 0 1 0 0
            0.50 
            20.00 0.00 431 381
            10.00 0
well42 -1
            thiem 0 1 0 0
            0.50 
            20.00 0.00 451 381
            10.00 0
well43 -1
            thiem 0 1 0 0
            0.50 
            20.00 0.00 51 401
            10.00 0
well44 -1
            thiem 0 1 0 0
            0.50 
            20.00 0.00 71 401
            10.00 0
well45 -1
            thiem 0 1 0 0
            0.50 
            20.00 0.00 91 401
            10.00 0
well46 -1
            thiem 0 1 0 0
            0.50 
            20.00 0.00 111 401
            10.00 0
well47 -1
            thiem 0 1 0 0
            0.50 
            20.00 0.00 131 401
            10.00 0
well48 -1
            thiem 0 1 0 0
            0.50 
            20.00 0.00 151 401
            10.00 0
well49 -1
            thiem 0 1 0 0
            0.50 
            20.00 0.00 171 401
            10.00 0
well50 -1
            thiem 0 1 0 0
            0.50 
            20.00 0.00 191 401
            10.00 0
well51 -1
            thiem 0 1 0 0
            0.50 
            20.00 0.00 211 401
            10.00 0
well52 -1
            thiem 0 1 0 0
            0.50 
            20.00 0.00 231 401
            10.00 0
well53 -1
            thiem 0 1 0 0
            0.50 
            20.00 0.00 251 401
            10.00 0
well54 -1
            thiem 0 1 0 0
            0.50 
            20.00 0.00 271 401
            10.00 0
well55 -1
            thiem 0 1 0 0
            0.50 
            20.00 0.00 291 401
            10.00 0
well56 -1
            thiem 0 1 0 0
            0.50 
            20.00 0.00 311 401
            10.00 0
well57 -1
            thiem 0 1 0 0
            0.50 
            20.00 0.00 331 401
            10.00 0
well58 -1
            thiem 0 1 0 0
            0.50 
            20.00 0.00 351 401
            10.00 0
well59 -1
            thiem 0 1 0 0
            0.50 
            20.00 0.00 371 401
            10.00 0
well60 -1
            thiem 0 1 0 0
            0.50 
            20.00 0.00 391 401
            10.00 0
well61 -1
            thiem 0 1 0 0
            0.50 
            20.00 0.00 411 401
            10.00 0
well62 -1
            thiem 0 1 0 0
            0.50 
            20.00 0.00 431 401
            10.00 0
well63 -1
            thiem 0 1 0 0
            0.50 
            20.00 0.00 451 401
            10.00 0
well64 -1
            thiem 0 1 0 0
            0.50 
            20.00 0.00 51 421
            10.00 0
well65 -1
            thiem 0 1 0 0
            0.50 
            20.00 0.00 71 421
            10.00 0
well66 -1
            thiem 0 1 0 0
            0.50 
            20.00 0.00 91 421
            10.00 0
well67 -1
            thiem 0 1 0 0
            0.50 
            20.00 0.00 111 421
            10.00 0
well68 -1
            thiem 0 1 0 0
            0.50 
            20.00 0.00 131 421
            10.00 0
well69 -1
            thiem 0 1 0 0
            0.50 
            20.00 0.00 151 421
            10.00 0
well70 -1
            thiem 0 1 0 0
            0.50 
            20.00 0.00 171 421
            10.00 0
well71 -1
            thiem 0 1 0 0
            0.50 
            20.00 0.00 191 421
            10.00 0
well72 -1
            thiem 0 1 0 0
            0.50 
            20.00 0.00 211 421
            10.00 0
well73 -1
            thiem 0 1 0 0
            0.50 
            20.00 0.00 231 421
            10.00 0
well74 -1
            thiem 0 1 0 0
            0.50 
            20.00 0.00 251 421
            10.00 0
well75 -1
            thiem 0 1 0 0
            0.50 
            20.00 0.00 271 421
            10.00 0
well76 -1
            thiem 0 1 0 0
            0.50 
            20.00 0.00 291 421
            10.00 0
well77 -1
            thiem 0 1 0 0
            0.50 
            20.00 0.00 311 421
            10.00 0
well78 -1
            thiem 0 1 0 0
            0.50 
            20.00 0.00 331 421
            10.00 0
well79 -1
            thiem 0 1 0 0
            0.50 
            20.00 0.00 351 421
            10.00 0
well80 -1
            thiem 0 1 0 0
            0.50 
            20.00 0.00 371 421
            10.00 0
well81 -1
            thiem 0 1 0 0
            0.50 
            20.00 0.00 391 421
            10.00 0
well82 -1
            thiem 0 1 0 0
            0.50 
            20.00 0.00 411 421
            10.00 0
well83 -1
            thiem 0 1 0 0
            0.50 
            20.00 0.00 431 421
            10.00 0
well84 -1
            thiem 0 1 0 0
            0.50 
            20.00 0.00 451 421
            10.00 0
well85 -1
            thiem 0 1 0 0
            0.50 
            20.00 0.00 51 441
            10.00 0
well86 -1
            thiem 0 1 0 0
            0.50 
            20.00 0.00 71 441
            10.00 0
well87 -1
            thiem 0 1 0 0
            0.50 
            20.00 0.00 91 441
            10.00 0
well88 -1
            thiem 0 1 0 0
            0.50 
            20.00 0.00 111 441
            10.00 0
well89 -1
            thiem 0 1 0 0
            0.50 
            20.00 0.00 131 441
            10.00 0
well90 -1
            thiem 0 1 0 0
            0.50 
            20.00 0.00 151 441
            10.00 0
well91 -1
            thiem 0 1 0 0
            0.50 
            20.00 0.00 171 441
            10.00 0
well92 -1
            thiem 0 1 0 0
            0.50 
            20.00 0.00 191 441
            10.00 0
well93 -1
            thiem 0 1 0 0
            0.50 
            20.00 0.00 211 441
            10.00 0
well94 -1
            thiem 0 1 0 0
            0.50 
            20.00 0.00 231 441
            10.00 0
well95 -1
            thiem 0 1 0 0
            0.50 
            20.00 0.00 251 441
            10.00 0
well96 -1
            thiem 0 1 0 0
            0.50 
            20.00 0.00 271 441
            10.00 0
well97 -1
            thiem 0 1 0 0
            0.50 
            20.00 0.00 291 441
            10.00 0
well98 -1
            thiem 0 1 0 0
            0.50 
            20.00 0.00 311 441
            10.00 0
well99 -1
            thiem 0 1 0 0
            0.50 
            20.00 0.00 331 441
            10.00 0
well100 -1
            thiem 0 1 0 0
            0.50 
            20.00 0.00 351 441
            10.00 0
well101 -1
            thiem 0 1 0 0
            0.50 
            20.00 0.00 371 441
            10.00 0
well102 -1
            thiem 0 1 0 0
            0.50 
            20.00 0.00 391 441
            10.00 0
well103 -1
            thiem 0 1 0 0
            0.50 
            20.00 0.00 411 441
            10.00 0
well104 -1
            thiem 0 1 0 0
            0.50 
            20.00 0.00 431 441
            10.00 0
well105 -1
            thiem 0 1 0 0
            0.50 
            20.00 0.00 451 461
            10.00 0
well106 -1
            thiem 0 1 0 0
            0.50 
            20.00 0.00 51 461
            10.00 0
well107 -1
            thiem 0 1 0 0
            0.50 
            20.00 0.00 71 461
            10.00 0
well108 -1
            thiem 0 1 0 0
            0.50 
            20.00 0.00 91 461
            10.00 0
well109 -1
            thiem 0 1 0 0
            0.50 
            20.00 0.00 111 461
            10.00 0
well110 -1
            thiem 0 1 0 0
            0.50 
            20.00 0.00 131 461
            10.00 0
well111 -1
            thiem 0 1 0 0
            0.50 
            20.00 0.00 151 461
            10.00 0
well112 -1
            thiem 0 1 0 0
            0.50 
            20.00 0.00 171 461
            10.00 0
well113 -1
            thiem 0 1 0 0
            0.50 
            20.00 0.00 191 461
            10.00 0
well114 -1
            thiem 0 1 0 0
            0.50 
            20.00 0.00 211 461
            10.00 0
well115 -1
            thiem 0 1 0 0
            0.50 
            20.00 0.00 231 461
            10.00 0
well116 -1
            thiem 0 1 0 0
            0.50 
            20.00 0.00 251 461
            10.00 0
well117 -1
            thiem 0 1 0 0
            0.50 
            20.00 0.00 271 461
            10.00 0
well118 -1
            thiem 0 1 0 0
            0.50 
            20.00 0.00 291 461
            10.00 0
well119 -1
            thiem 0 1 0 0
            0.50 
            20.00 0.00 311 461
            10.00 0
well120 -1
            thiem 0 1 0 0
            0.50 
            20.00 0.00 331 461
            10.00 0
well121 -1
            thiem 0 1 0 0
            0.50 
            20.00 0.00 351 461
            10.00 0
well122 -1
            thiem 0 1 0 0
            0.50 
            20.00 0.00 371 461
            10.00 0
well123 -1
            thiem 0 1 0 0
            0.50 
            20.00 0.00 391 461
            10.00 0
well124 -1
            thiem 0 1 0 0
            0.50 
            20.00 0.00 411 461
            10.00 0
well125 -1
            thiem 0 1 0 0
            0.50 
            20.00 0.00 431 461
            10.00 0
well126 -1
            thiem 0 1 0 0
            0.50 
            20.00 0.00 451 461
            10.00 0
well127 -1
            thiem 0 1 0 0
            0.50 
            20.00 0.00 51 481
            10.00 0
well128 -1
            thiem 0 1 0 0
            0.50 
            20.00 0.00 71 481
            10.00 0
well129 -1
            thiem 0 1 0 0
            0.50 
            20.00 0.00 91 481
            10.00 0
well130 -1
            thiem 0 1 0 0
            0.50 
            20.00 0.00 111 481
            10.00 0
well131 -1
            thiem 0 1 0 0
            0.50 
            20.00 0.00 131 481
            10.00 0
well132 -1
            thiem 0 1 0 0
            0.50 
            20.00 0.00 151 481
            10.00 0
well133 -1
            thiem 0 1 0 0
            0.50 
            20.00 0.00 171 481
            10.00 0
well134 -1
            thiem 0 1 0 0
            0.50 
            20.00 0.00 191 481
            10.00 0
well135 -1
            thiem 0 1 0 0
            0.50 
            20.00 0.00 211 481
            10.00 0
well136 -1
            thiem 0 1 0 0
            0.50 
            20.00 0.00 231 481
            10.00 0
well137 -1
            thiem 0 1 0 0
            0.50 
            20.00 0.00 251 481
            10.00 0
well138 -1
            thiem 0 1 0 0
            0.50 
            20.00 0.00 271 481
            10.00 0
well139 -1
            thiem 0 1 0 0
            0.50 
            20.00 0.00 291 481
            10.00 0
well140 -1
            thiem 0 1 0 0
            0.50 
            20.00 0.00 311 481
            10.00 0
well141 -1
            thiem 0 1 0 0
            0.50 
            20.00 0.00 331 481
            10.00 0
well142 -1
            thiem 0 1 0 0
            0.50 
            20.00 0.00 351 481
            10.00 0
well143 -1
            thiem 0 1 0 0
            0.50 
            20.00 0.00 371 481
            10.00 0
well144 -1
            thiem 0 1 0 0
            0.50 
            20.00 0.00 391 481
            10.00 0
well145 -1
            thiem 0 1 0 0
            0.50 
            20.00 0.00 411 481
            10.00 0
well146 -1
            thiem 0 1 0 0
            0.50 
            20.00 0.00 431 481
            10.00 0
well147 -1
            thiem 0 1 0 0
            0.50 
            20.00 0.00 451 481
            10.00 0
well148 -1
            thiem 0 1 0 0
            0.50 
            20.00 0.00 51 341
            10.00 0
well149 -1
            thiem 0 1 0 0
            0.50 
            20.00 0.00 71 341
            10.00 0
well150 -1
            thiem 0 1 0 0
            0.50 
            20.00 0.00 91 341
            10.00 0
well151 -1
            thiem 0 1 0 0
            0.50 
            20.00 0.00 111 341
            10.00 0
well152 -1
            thiem 0 1 0 0
            0.50 
            20.00 0.00 131 341
            10.00 0
well153 -1
            thiem 0 1 0 0
            0.50 
            20.00 0.00 151 341
            10.00 0
well154 -1
            thiem 0 1 0 0
            0.50 
            20.00 0.00 171 341
            10.00 0
well155 -1
            thiem 0 1 0 0
            0.50 
            20.00 0.00 191 341
            10.00 0
well156 -1
            thiem 0 1 0 0
            0.50 
            20.00 0.00 211 341
            10.00 0
well157 -1
            thiem 0 1 0 0
            0.50 
            20.00 0.00 231 341
            10.00 0
well158 -1
            thiem 0 1 0 0
            0.50 
            20.00 0.00 251 341
            10.00 0
well159 -1
            thiem 0 1 0 0
            0.50 
            20.00 0.00 271 341
            10.00 0
well160 -1
            thiem 0 1 0 0
            0.50 
            20.00 0.00 291 341
            10.00 0
well161 -1
            thiem 0 1 0 0
            0.50 
            20.00 0.00 311 341
            10.00 0
well162 -1
            thiem 0 1 0 0
            0.50 
            20.00 0.00 331 341
            10.00 0
well163 -1
            thiem 0 1 0 0
            0.50 
            20.00 0.00 351 341
            10.00 0
well164 -1
            thiem 0 1 0 0
            0.50 
            20.00 0.00 371 341
            10.00 0
well165 -1
            thiem 0 1 0 0
            0.50 
            20.00 0.00 391 341
            10.00 0
well166 -1
            thiem 0 1 0 0
            0.50 
            20.00 0.00 411 341
            10.00 0
well167 -1
            thiem 0 1 0 0
            0.50 
            20.00 0.00 431 341
            10.00 0
well168 -1
            thiem 0 1 0 0
            0.50 
            20.00 0.00 451 341
            10.00 0
well169 -1
            thiem 0 1 0 0
            0.50 
            20.00 0.00 51 321
            10.00 0
well170 -1
            thiem 0 1 0 0
            0.50 
            20.00 0.00 71 321
            10.00 0
well171 -1
            thiem 0 1 0 0
            0.50 
            20.00 0.00 91 321
            10.00 0
well172 -1
            thiem 0 1 0 0
            0.50 
            20.00 0.00 111 321
            10.00 0
well173 -1
            thiem 0 1 0 0
            0.50 
            20.00 0.00 131 321
            10.00 0
well174 -1
            thiem 0 1 0 0
            0.50 
            20.00 0.00 151 321
            10.00 0
well175 -1
            thiem 0 1 0 0
            0.50 
            20.00 0.00 171 321
            10.00 0
well176 -1
            thiem 0 1 0 0
            0.50 
            20.00 0.00 191 321
            10.00 0
well177 -1
            thiem 0 1 0 0
            0.50 
            20.00 0.00 211 321
            10.00 0
well178 -1
            thiem 0 1 0 0
            0.50 
            20.00 0.00 231 321
            10.00 0
well179 -1
            thiem 0 1 0 0
            0.50 
            20.00 0.00 251 321
            10.00 0
well180 -1
            thiem 0 1 0 0
            0.50 
            20.00 0.00 271 321
            10.00 0
well181 -1
            thiem 0 1 0 0
            0.50 
            20.00 0.00 291 321
            10.00 0
well182 -1
            thiem 0 1 0 0
            0.50 
            20.00 0.00 311 321
            10.00 0
well183 -1
            thiem 0 1 0 0
            0.50 
            20.00 0.00 331 321
            10.00 0
well184 -1
            thiem 0 1 0 0
            0.50 
            20.00 0.00 351 321
            10.00 0
well185 -1
            thiem 0 1 0 0
            0.50 
            20.00 0.00 371 321
            10.00 0
well186 -1
            thiem 0 1 0 0
            0.50 
            20.00 0.00 391 321
            10.00 0
well187 -1
            thiem 0 1 0 0
            0.50 
            20.00 0.00 411 321
            10.00 0
well188 -1
            thiem 0 1 0 0
            0.50 
            20.00 0.00 431 321
            10.00 0
well189 -1
            thiem 0 1 0 0
            0.50 
            20.00 0.00 451 321
            10.00 0
well190 -1
            thiem 0 1 0 0
            0.50 
            20.00 0.00 51 301
            10.00 0
well191 -1
            thiem 0 1 0 0
            0.50 
            20.00 0.00 71 301
            10.00 0
well192 -1
            thiem 0 1 0 0
            0.50 
            20.00 0.00 91 301
            10.00 0
well193 -1
            thiem 0 1 0 0
            0.50 
            20.00 0.00 111 301
            10.00 0
well194 -1
            thiem 0 1 0 0
            0.50 
            20.00 0.00 131 301
            10.00 0
well195 -1
            thiem 0 1 0 0
            0.50 
            20.00 0.00 151 301
            10.00 0
well196 -1
            thiem 0 1 0 0
            0.50 
            20.00 0.00 171 301
            10.00 0
well197 -1
            thiem 0 1 0 0
            0.50 
            20.00 0.00 191 301
            10.00 0
well198 -1
            thiem 0 1 0 0
            0.50 
            20.00 0.00 211 301
            10.00 0
well199 -1
            thiem 0 1 0 0
            0.50 
            20.00 0.00 231 301
            10.00 0
well200 -1
            thiem 0 1 0 0
            0.50 
            20.00 0.00 251 301
            10.00 0
well201 -1
            thiem 0 1 0 0
            0.50 
            20.00 0.00 271 301
            10.00 0
well202 -1
            thiem 0 1 0 0
            0.50 
            20.00 0.00 291 301
            10.00 0
well203 -1
            thiem 0 1 0 0
            0.50 
            20.00 0.00 311 301
            10.00 0
well204 -1
            thiem 0 1 0 0
            0.50 
            20.00 0.00 331 301
            10.00 0
well205 -1
            thiem 0 1 0 0
            0.50 
            20.00 0.00 351 301
            10.00 0
well206 -1
            thiem 0 1 0 0
            0.50 
            20.00 0.00 371 301
            10.00 0
well207 -1
            thiem 0 1 0 0
            0.50 
            20.00 0.00 391 301
            10.00 0
well208 -1
            thiem 0 1 0 0
            0.50 
            20.00 0.00 411 301
            10.00 0
well209 -1
            thiem 0 1 0 0
            0.50 
            20.00 0.00 431 301
            10.00 0
well210 -1
            thiem 0 1 0 0
            0.50 
            20.00 0.00 451 301
            10.00 0
well211 -1
            thiem 0 1 0 0
            0.50 
            20.00 0.00 51 281
            10.00 0
well212 -1
            thiem 0 1 0 0
            0.50 
            20.00 0.00 71 281
            10.00 0
well213 -1
            thiem 0 1 0 0
            0.50 
            20.00 0.00 91 281
            10.00 0
well214 -1
            thiem 0 1 0 0
            0.50 
            20.00 0.00 111 281
            10.00 0
well215 -1
            thiem 0 1 0 0
            0.50 
            20.00 0.00 131 281
            10.00 0
well216 -1
            thiem 0 1 0 0
            0.50 
            20.00 0.00 151 281
            10.00 0
well217 -1
            thiem 0 1 0 0
            0.50 
            20.00 0.00 171 281
            10.00 0
well218 -1
            thiem 0 1 0 0
            0.50 
            20.00 0.00 191 281
            10.00 0
well219 -1
            thiem 0 1 0 0
            0.50 
            20.00 0.00 211 281
            10.00 0
well220 -1
            thiem 0 1 0 0
            0.50 
            20.00 0.00 231 281
            10.00 0
well221 -1
            thiem 0 1 0 0
            0.50 
            20.00 0.00 251 281
            10.00 0
well222 -1
            thiem 0 1 0 0
            0.50 
            20.00 0.00 271 281
            10.00 0
well223 -1
            thiem 0 1 0 0
            0.50 
            20.00 0.00 291 281
            10.00 0
well224 -1
            thiem 0 1 0 0
            0.50 
            20.00 0.00 311 281
            10.00 0
well225 -1
            thiem 0 1 0 0
            0.50 
            20.00 0.00 331 281
            10.00 0
well226 -1
            thiem 0 1 0 0
            0.50 
            20.00 0.00 351 281
            10.00 0
well227 -1
            thiem 0 1 0 0
            0.50 
            20.00 0.00 371 281
            10.00 0
well228 -1
            thiem 0 1 0 0
            0.50 
            20.00 0.00 391 281
            10.00 0
well229 -1
            thiem 0 1 0 0
            0.50 
            20.00 0.00 411 281
            10.00 0
well230 -1
            thiem 0 1 0 0
            0.50 
            20.00 0.00 431 281
            10.00 0
well231 -1
            thiem 0 1 0 0
            0.50 
            20.00 0.00 451 281
            10.00 0
well232 -1
            thiem 0 1 0 0
            0.50 
            20.00 0.00 51 261
            10.00 0
well233 -1
            thiem 0 1 0 0
            0.50 
            20.00 0.00 71 261
            10.00 0
well234 -1
            thiem 0 1 0 0
            0.50 
            20.00 0.00 91 261
            10.00 0
well235 -1
            thiem 0 1 0 0
            0.50 
            20.00 0.00 111 261
            10.00 0
well236 -1
            thiem 0 1 0 0
            0.50 
            20.00 0.00 131 261
            10.00 0
well237 -1
            thiem 0 1 0 0
            0.50 
            20.00 0.00 151 261
            10.00 0
well238 -1
            thiem 0 1 0 0
            0.50 
            20.00 0.00 171 261
            10.00 0
well239 -1
            thiem 0 1 0 0
            0.50 
            20.00 0.00 191 261
            10.00 0
well240 -1
            thiem 0 1 0 0
            0.50 
            20.00 0.00 211 261
            10.00 0
well241 -1
            thiem 0 1 0 0
            0.50 
            20.00 0.00 231 261
            10.00 0
well242 -1
            thiem 0 1 0 0
            0.50 
            20.00 0.00 251 261
            10.00 0
well243 -1
            thiem 0 1 0 0
            0.50 
            20.00 0.00 271 261
            10.00 0
well244 -1
            thiem 0 1 0 0
            0.50 
            20.00 0.00 291 261
            10.00 0
well245 -1
            thiem 0 1 0 0
            0.50 
            20.00 0.00 311 261
            10.00 0
well246 -1
            thiem 0 1 0 0
            0.50 
            20.00 0.00 331 261
            10.00 0
well247 -1
            thiem 0 1 0 0
            0.50 
            20.00 0.00 351 261
            10.00 0
well248 -1
            thiem 0 1 0 0
            0.50 
            20.00 0.00 371 261
            10.00 0
well249 -1
            thiem 0 1 0 0
            0.50 
            20.00 0.00 391 261
            10.00 0
well250 -1
            thiem 0 1 0 0
            0.50 
            20.00 0.00 411 261
            10.00 0
well251 -1
            thiem 0 1 0 0
            0.50 
            20.00 0.00 431 261
            10.00 0
well252 -1
            thiem 0 1 0 0
            0.50 
            20.00 0.00 451 261
            10.00 0
252  Stress Period 1
well1 0.00
well10 0.00
well100 0.00
well101 0.00
well102 0.00
well103 0.00
well104 0.00
well105 0.00
well106 0.00
well107 0.00
well108 0.00
well109 0.00
well11 0.00
well110 0.00
well111 0.00
well112 0.00
well113 0.00
well114 0.00
well115 0.00
well116 0.00
well117 0.00
well118 0.00
well119 0.00
well12 0.00
well120 0.00
well121 0.00
well122 0.00
well123 0.00
well124 0.00
well125 0.00
well126 0.00
well127 0.00
well128 0.00
well129 0.00
well13 0.00
well130 0.00
well131 0.00
well132 0.00
well133 0.00
well134 0.00
well135 0.00
well136 0.00
well137 0.00
well138 0.00
well139 0.00
well14 0.00
well140 0.00
well141 0.00
well142 0.00
well143 0.00
well144 0.00
well145 0.00
well146 0.00
well147 0.00
well148 0.00
well149 0.00
well15 0.00
well150 0.00
well151 0.00
well152 0.00
well153 0.00
well154 0.00
well155 0.00
well156 0.00
well157 0.00
well158 0.00
well159 0.00
well16 0.00
well160 0.00
well161 0.00
well162 0.00
well163 0.00
well164 0.00
well165 0.00
well166 0.00
well167 0.00
well168 0.00
well169 0.00
well17 0.00
well170 0.00
well171 0.00
well172 0.00
well173 0.00
well174 0.00
well175 0.00
well176 0.00
well177 0.00
well178 0.00
well179 0.00
well18 0.00
well180 0.00
well181 0.00
well182 0.00
well183 0.00
well184 0.00
well185 0.00
well186 0.00
well187 0.00
well188 0.00
well189 0.00
well19 0.00
well190 0.00
well191 0.00
well192 0.00
well193 0.00
well194 0.00
well195 0.00
well196 0.00
well197 0.00
well198 0.00
well199 0.00
well2 0.00
well20 0.00
well200 0.00
well201 0.00
well202 0.00
well203 0.00
well204 0.00
well205 0.00
well206 0.00
well207 0.00
well208 0.00
well209 0.00
well21 0.00
well210 0.00
well211 0.00
well212 0.00
well213 0.00
well214 0.00
well215 0.00
well216 0.00
well217 0.00
well218 0.00
well219 0.00
well22 0.00
well220 0.00
well221 0.00
well222 0.00
well223 0.00
well224 0.00
well225 0.00
well226 0.00
well227 0.00
well228 0.00
well229 0.00
well23 0.00
well230 0.00
well231 0.00
well232 0.00
well233 0.00
well234 0.00