# PCG for MODFLOW, generated by Flopy.
50 30 1 0
1e-04 1e-04 1.0 0 0 3 1.0 
